Circuit: *** SPICE deck for cell Current_mirror_bias_SIM{sch} from library Fig-20-25-Sim

Error on line 14 : .model pmodel pmos level=3 kp=20e-6 vto=0.7 gamma=0.4 lambda=0.05 phi=0.6 ld=0.6e-6 tox=40e-9 cgso=3.0e-10 cgdo=3.0e-10 cj=.2mf/m^2
	* Unrecognized parameter "lambda" -- ignored
	* Unrecognized parameter "/m^2" -- ignored
Error on line 11 : .model nmodel nmos level=3 kp=60e-6 vto=0.7 gamma=0.3 lambda=0.05 phi=0.6 ld=0.4e-6 tox=40e-9 cgso=2.0e-10 cgdo=2.0e-10 cj=.2mf/m^2
	* Unrecognized parameter "lambda" -- ignored
	* Unrecognized parameter "/m^2" -- ignored
Instance "mnmos@2": Length shorter than recommended for a level 3 MOSFET.
.OP point found by inspection.

Date: Mon Oct 03 14:34:35 2016
Total elapsed time: 0.109 seconds.

tnom = 27
temp = 27
method = trap
totiter = 24545
traniter = 0
tranpoints = 0
accept = 0
rejected = 0
matrix size = 7
fillins = 0
solver = Normal
Matrix Compiler1: 662 bytes object code size  0.4/0.3/[0.3]
Matrix Compiler2: 705 bytes object code size  0.3/0.3/[0.2]


