Circuit: *** SPICE deck for cell Current_mirror_bias_SIM{sch} from library Fig-20-25-Sim

.OP point found by inspection.

Date: Tue Oct 04 17:38:13 2016
Total elapsed time: 0.091 seconds.

tnom = 27
temp = 27
method = trap
totiter = 12001
traniter = 0
tranpoints = 0
accept = 0
rejected = 0
matrix size = 6
fillins = 0
solver = Normal
Matrix Compiler1: 414 bytes object code size  0.6/0.4/[0.4]
Matrix Compiler2: 524 bytes object code size  0.4/0.5/[0.4]


