Circuit: *** SPICE deck for cell Current_mirror_bias_SIM{lay} from library Fig-20-25-Sim

.OP point found by inspection.

Date: Tue Oct 04 17:45:44 2016
Total elapsed time: 0.071 seconds.

tnom = 27
temp = 27
method = trap
totiter = 12001
traniter = 0
tranpoints = 0
accept = 0
rejected = 0
matrix size = 5
fillins = 0
solver = Normal
Matrix Compiler1: 266 bytes object code size  0.3/0.2/[0.2]
Matrix Compiler2: 423 bytes object code size  0.2/0.2/[0.2]


