Circuit: *** SPICE deck for cell Current_mirror_bias_SIM{lay} from library Fig-20-25-Sim

.OP point found by inspection.

Date: Tue Oct 04 18:38:05 2016
Total elapsed time: 0.096 seconds.

tnom = 27
temp = 27
method = trap
totiter = 12001
traniter = 0
tranpoints = 0
accept = 0
rejected = 0
matrix size = 6
fillins = 0
solver = Normal
Matrix Compiler1: 396 bytes object code size  0.6/0.5/[0.4]
Matrix Compiler2: 530 bytes object code size  0.5/0.5/[0.4]


