Circuit: *** SPICE deck for cell Fig-20-22-sch-SIM{sch} from library Fig-20-22-Sim

WARNING: Less than two connections to node VDDIN.  This node is used by VDD.
.OP point found by inspection.

Date: Thu Oct 06 11:08:29 2016
Total elapsed time: 0.386 seconds.

tnom = 27
temp = 27
method = trap
totiter = 6000
traniter = 0
tranpoints = 0
accept = 0
rejected = 0
matrix size = 53
fillins = 0
solver = Normal
Matrix Compiler1: 8.87 KB object code size  13.0/5.3/[1.8]
Matrix Compiler2: 5.94 KB object code size  3.2/2.4/[1.0]


