Circuit: *** SPICE deck for cell Current_mirror_bias_SIM{sch} from library Fig-20-25-Sim

.OP point found by inspection.

Date: Wed Oct 05 14:49:38 2016
Total elapsed time: 0.438 seconds.

tnom = 27
temp = 27
method = trap
totiter = 12001
traniter = 0
tranpoints = 0
accept = 0
rejected = 0
matrix size = 6
fillins = 0
solver = Normal
Matrix Compiler1: 414 bytes object code size  0.4/0.3/[0.3]
Matrix Compiler2: 524 bytes object code size  0.3/0.4/[0.3]


