Circuit: *** SPICE deck for cell Fig-20-22-sch-SIM{sch} from library Fig-20-22-Sim

WARNING: Less than two connections to node VDDIN.  This node is used by VDD.
.OP point found by inspection.

Date: Tue Oct 11 15:37:06 2016
Total elapsed time: 0.193 seconds.

tnom = 27
temp = 27
method = trap
totiter = 6000
traniter = 0
tranpoints = 0
accept = 0
rejected = 0
matrix size = 53
fillins = 0
solver = Normal
Matrix Compiler1: 8.87 KB object code size  1.7/0.9/[0.9]
Matrix Compiler2: 5.94 KB object code size  0.4/0.7/[0.4]


