Questionable use of curly braces in "set color0 ={white}"
    Error: undefined symbol in: "[white]"
Questionable use of curly braces in "set color1={black}"
    Error: undefined symbol in: "[black]"
Circuit: * Simulación Circuito De las figura 20,15 CMOS Current Mirror Level 3

Fatal Error: Multiple instances of "Set"
